powerfactory/powerfactory-converter/src/test/resources/Hvdc.xiidm
<?xml version="1.0" encoding="UTF-8"?>
<iidm:network xmlns:iidm="http://www.powsybl.org/schema/iidm/1_17" id="Hvdc" caseDate="2021-01-01T10:00:00.000+02:00" forecastDistance="0" sourceFormat="POWER-FACTORY" minimumValidationLevel="STEADY_STATE_HYPOTHESIS">
    <iidm:substation id="S11">
        <iidm:voltageLevel id="VL11" nominalV="165.0" topologyKind="NODE_BREAKER">
            <iidm:nodeBreakerTopology>
                <iidm:busbarSection id="VL11_1 Bus 1-Slack" node="0"/>
                <iidm:switch id="VL11_Switch" kind="BREAKER" open="false" node1="0" node2="1"/>
                <iidm:switch id="VL11_Switch#0" kind="BREAKER" open="false" node1="0" node2="2"/>
                <iidm:switch id="VL11_Switch#1" kind="BREAKER" open="false" node1="0" node2="3"/>
            </iidm:nodeBreakerTopology>
            <iidm:generator id="sym_1_1" energySource="OTHER" minP="0.0" maxP="61.130001068115234" targetP="61.130001068115234" localTargetV="174.89999055862427" localTargetQ="0.0" node="3">
                <iidm:minMaxReactiveLimits minQ="0.0" maxQ="0.0"/>
                <iidm:voltageRegulation mode="VOLTAGE" regulating="true"/>
            </iidm:generator>
        </iidm:voltageLevel>
    </iidm:substation>
    <iidm:substation id="S12">
        <iidm:voltageLevel id="VL12" nominalV="165.0" topologyKind="NODE_BREAKER">
            <iidm:nodeBreakerTopology>
                <iidm:busbarSection id="VL12_2 Bus 2" node="0"/>
                <iidm:switch id="VL12_Switch" kind="BREAKER" open="false" node1="0" node2="1"/>
                <iidm:switch id="VL12_HVDC AC Converter 1 Switch" kind="BREAKER" open="false" node1="0" node2="2"/>
                <iidm:internalConnection node1="0" node2="3"/>
            </iidm:nodeBreakerTopology>
            <iidm:vscConverterStation id="HVDC Converter 1" lossFactor="1.6666666" localTargetV="300.0" localTargetQ="0.0" node="3">
                <iidm:minMaxReactiveLimits minQ="-1.7976931348623157E308" maxQ="1.7976931348623157E308"/>
            </iidm:vscConverterStation>
        </iidm:voltageLevel>
    </iidm:substation>
    <iidm:substation id="S13">
        <iidm:voltageLevel id="VL13" nominalV="165.0" topologyKind="NODE_BREAKER">
            <iidm:nodeBreakerTopology>
                <iidm:busbarSection id="VL13_3 Bus 2-Load" node="0"/>
                <iidm:switch id="VL13_Switch" kind="BREAKER" open="false" node1="0" node2="1"/>
                <iidm:switch id="VL13_Switch#0" kind="BREAKER" open="false" node1="0" node2="2"/>
                <iidm:switch id="VL13_HVDC AC Converter 2 Switch" kind="BREAKER" open="false" node1="0" node2="3"/>
                <iidm:internalConnection node1="0" node2="4"/>
            </iidm:nodeBreakerTopology>
            <iidm:load id="lod_3_1" loadType="UNDEFINED" p0="50.0" q0="25.0" node="2"/>
            <iidm:vscConverterStation id="HVDC Converter 2" lossFactor="0.0" localTargetV="302.99999713897705" localTargetQ="100.0" node="4">
                <iidm:minMaxReactiveLimits minQ="-1.7976931348623157E308" maxQ="1.7976931348623157E308"/>
            </iidm:vscConverterStation>
        </iidm:voltageLevel>
    </iidm:substation>
    <iidm:line id="lne_1_2_1" r="5.276180267333984" x="16.109027862548828" b1="6.35592357635498E-4" b2="6.35592357635498E-4" node1="1" voltageLevelId1="VL11" node2="1" voltageLevelId2="VL12"/>
    <iidm:line id="lne_1_3_1" r="5.276180267333984" x="16.109027862548828" b1="6.35592357635498E-4" b2="6.35592357635498E-4" node1="2" voltageLevelId1="VL11" node2="1" voltageLevelId2="VL13"/>
    <iidm:hvdcLine id="DC-Line_pos" r="2.5366251468658447" nominalV="320.0" convertersMode="SIDE_1_RECTIFIER_SIDE_2_INVERTER" activePowerSetpoint="600.0" maxP="900.0" converterStation1="HVDC Converter 1" converterStation2="HVDC Converter 2"/>
</iidm:network>
